LTspice 24.0.9 for Windows
Circuit: * C:\Users\Jay Patel\OneDrive\Desktop\projects ( E-Thunder)\FPV Car (Fun)\Design\Modules\Module 3 ( Motor driver module )\Full Motor Driver Module ( version 1 ).asc
Start Time: Sat Apr 12 23:32:00 2025
Error on line 6 : v1 n003 0 5 volt
	 Unknown parameter "volt"
solver = Normal
Maximum thread count: 12
tnom = 27
temp = 27
method = modified trap
WARNING: Specified period is not longer than the sum of Trise, Tfall, and Ton for v§q3_ctrl_signal.  Increasing period to 1
Limiting rise time of source v§q3_ctrl_signal to 1.9984e-16
Limiting fall time of source v§q3_ctrl_signal to 1.9984e-16
WARNING: Specified period is not longer than the sum of Trise, Tfall, and Ton for v§q1_ctrl_signal.  Increasing period to 1
Limiting rise time of source v§q1_ctrl_signal to 1.9984e-16
Limiting fall time of source v§q1_ctrl_signal to 1.9984e-16
WARNING: Specified period is not longer than the sum of Trise, Tfall, and Ton for v§q4_ctrl_signal.  Increasing period to 1
Limiting rise time of source v§q4_ctrl_signal to 1.9984e-16
Limiting fall time of source v§q4_ctrl_signal to 1.9984e-16
WARNING: Specified period is not longer than the sum of Trise, Tfall, and Ton for v§q2_ctrl_signal.  Increasing period to 1
Limiting rise time of source v§q2_ctrl_signal to 1.9984e-16
Limiting fall time of source v§q2_ctrl_signal to 1.9984e-16
Direct Newton iteration for .op point succeeded.
Total elapsed time: 3.726 seconds.

